[General]
sim-time-limit = 10s
simtime-resolution = ms
record-eventlog = true
seed-set = 0

[Config TenHosts]
description = "10 nodes playing the hot potato"
network = ds_ex1_tictoc.simulations.Scenario2
**.startTime = intuniform(3s, 5s)  # Starts the simulation at t = 5s
*.initializer = intuniform(0, 9)

[Config TwoHosts]
description = "A tictoc experiment with 2 nodes"
network = ds_ex1_tictoc.simulations.Scenario1
**.startTime = 5s  # Starts the simulation at t = 5s
**.initializer = 1

